/*---------------------------------------------------------------------------*\
  =========                 |
  \\      /  F ield         | OpenFOAM: The Open Source CFD Toolbox
   \\    /   O peration     | Website:  https://openfoam.org
    \\  /    A nd           | Version:  7
     \\/     M anipulation  |
\*---------------------------------------------------------------------------*/
Build  : 7
Exec   : devTest
Date   : Nov 07 2021
Time   : 03:07:04
Host   : "dhcp-062140"
PID    : 3274
I/O    : uncollated
Case   : /calcuDrive/Jingyuan/OpenFOAM/jingyuaz-7/solver/porousBedFoam/devTest/case
nProcs : 1
sigFpe : Enabling floating point exception trapping (FOAM_SIGFPE).
fileModificationChecking : Monitoring run-time modified files using timeStampMaster (fileModificationSkew 10)
allowSystemOperations : Allowing user-supplied system call operations

// * * * * * * * * * * * * * * * * * * * * * * * * * * * * * * * * * * * * * //
Create time

Create mesh for time = 0


Reading g

ExecutionTime = 0.01 s  ClockTime = 0 s

Reading thermophysical properties

Selecting thermodynamics package 
{
    type            hePsiThermo;
    mixture         reactingMixture;
    transport       sutherland;
    thermo          janaf;
    energy          sensibleEnthalpy;
    equationOfState perfectGas;
    specie          specie;
}

Selecting chemistryReader foamChemistryReader
    elements not defined in "/calcuDrive/Jingyuan/OpenFOAM/jingyuaz-7/solver/porousBedFoam/devTest/case/constant/foam.inp"
Creating component thermo properties:
    multi-component carrier - 10 species
    liquids - 1 components
    solids - 4 components
Construct coarse grid
    Selecting particle force sphereDrag
Selecting Momentum integration scheme Euler
Bed model: bed2d Constructed
alphaBed field: dimensions      [0 0 0 0 0 0 0];

internalField   nonuniform List<scalar> 9(0.6826674087 0.6826674087 0.6826674087 0.6826674087 0.6826674087 1 0.6826674087 1 1);

boundaryField
{
    top
    {
        type            calculated;
        value           uniform 0.01;
    }
    bottom
    {
        type            calculated;
        value           uniform 0.01;
    }
    walls
    {
        type            calculated;
        value           uniform 0.01;
    }
}


bed number field: dimensions      [0 0 0 0 0 0 0];

internalField   nonuniform List<scalar> 9(600 600 600 600 600 0 600 0 0);

boundaryField
{
    top
    {
        type            zeroGradient;
    }
    bottom
    {
        type            zeroGradient;
    }
    walls
    {
        type            zeroGradient;
    }
}


bedIDBottom: 2(0 1)

bedIDInternal: 1(3)

chechCollapse: 1

bedGridColumn: 
3
(
3(0 3 6)
3(1 4 7)
3(2 5 8)
)


columnList: 3(0 3 6)

cellj: 3

this->alpha_[celli]: 0.6826674087

this->particleNumber_[cellj]: 600

celli: 0cellj: 3collapseNumber: 533

this->particleNumber_: dimensions      [0 0 0 0 0 0 0];

internalField   nonuniform List<scalar> 9(600 600 600 600 600 0 600 0 0);

boundaryField
{
    top
    {
        type            zeroGradient;
    }
    bottom
    {
        type            zeroGradient;
    }
    walls
    {
        type            zeroGradient;
    }
}


this->particleNumber_ after: dimensions      [0 0 0 0 0 0 0];

internalField   nonuniform List<scalar> 9(1133 600 600 67 600 0 600 0 0);

boundaryField
{
    top
    {
        type            zeroGradient;
    }
    bottom
    {
        type            zeroGradient;
    }
    walls
    {
        type            zeroGradient;
    }
}


cellj: 6

this->alpha_[celli]: 0.9645645273

this->particleNumber_[cellj]: 600

celli: 3cellj: 6collapseNumber: 600

this->particleNumber_: dimensions      [0 0 0 0 0 0 0];

internalField   nonuniform List<scalar> 9(1133 600 600 67 600 0 600 0 0);

boundaryField
{
    top
    {
        type            zeroGradient;
    }
    bottom
    {
        type            zeroGradient;
    }
    walls
    {
        type            zeroGradient;
    }
}


this->particleNumber_ after: dimensions      [0 0 0 0 0 0 0];

internalField   nonuniform List<scalar> 9(1133 600 600 667 600 0 0 0 0);

boundaryField
{
    top
    {
        type            zeroGradient;
    }
    bottom
    {
        type            zeroGradient;
    }
    walls
    {
        type            zeroGradient;
    }
}


columnList: 3(1 4 7)

cellj: 4

this->alpha_[celli]: 0.6826674087

this->particleNumber_[cellj]: 600

celli: 1cellj: 4collapseNumber: 533

this->particleNumber_: dimensions      [0 0 0 0 0 0 0];

internalField   nonuniform List<scalar> 9(1133 600 600 667 600 0 0 0 0);

boundaryField
{
    top
    {
        type            zeroGradient;
    }
    bottom
    {
        type            zeroGradient;
    }
    walls
    {
        type            zeroGradient;
    }
}


this->particleNumber_ after: dimensions      [0 0 0 0 0 0 0];

internalField   nonuniform List<scalar> 9(1133 1133 600 667 67 0 0 0 0);

boundaryField
{
    top
    {
        type            zeroGradient;
    }
    bottom
    {
        type            zeroGradient;
    }
    walls
    {
        type            zeroGradient;
    }
}


cellj: 7

this->alpha_[celli]: 0.9645645273

this->particleNumber_[cellj]: 0

columnList: 3(2 5 8)

cellj: 5

this->alpha_[celli]: 0.6826674087

this->particleNumber_[cellj]: 0

cellj: 8

this->alpha_[celli]: 1

this->particleNumber_[cellj]: 0

gravityCollapse: 

alphaBed field: dimensions      [0 0 0 0 0 0 0];

internalField   nonuniform List<scalar> 9(0.4007702901 0.4007702901 0.6826674087 0.647231936 0.9645645273 1 1 1 1);

boundaryField
{
    top
    {
        type            calculated;
        value           uniform 0.01;
    }
    bottom
    {
        type            calculated;
        value           uniform 0.01;
    }
    walls
    {
        type            calculated;
        value           uniform 0.01;
    }
}


bed number field: dimensions      [0 0 0 0 0 0 0];

internalField   nonuniform List<scalar> 9(1133 1133 600 667 67 0 0 0 0);

boundaryField
{
    top
    {
        type            zeroGradient;
    }
    bottom
    {
        type            zeroGradient;
    }
    walls
    {
        type            zeroGradient;
    }
}


End

