/*---------------------------------------------------------------------------*\
  =========                 |
  \\      /  F ield         | OpenFOAM: The Open Source CFD Toolbox
   \\    /   O peration     | Website:  https://openfoam.org
    \\  /    A nd           | Version:  7
     \\/     M anipulation  |
\*---------------------------------------------------------------------------*/
Build  : 7
Exec   : biomassBedFoam
Date   : Nov 25 2021
Time   : 19:56:42
Host   : "dhcp-062140"
PID    : 22216
I/O    : uncollated
Case   : /calcuDrive/Jingyuan/OpenFOAM/jingyuaz-7/solver/porousBedFoam/devTest/case
nProcs : 1
sigFpe : Enabling floating point exception trapping (FOAM_SIGFPE).
fileModificationChecking : Monitoring run-time modified files using timeStampMaster (fileModificationSkew 10)
allowSystemOperations : Allowing user-supplied system call operations

// * * * * * * * * * * * * * * * * * * * * * * * * * * * * * * * * * * * * * //
Create time

Create mesh for time = 0.000119904


PIMPLE: No convergence criteria found


PIMPLE: Operating solver in transient mode with 1 outer corrector
PIMPLE: Operating solver in PISO mode



Reading g
Reading thermophysical properties

Selecting thermodynamics package 
{
    type            hePsiThermo;
    mixture         reactingMixture;
    transport       sutherland;
    thermo          janaf;
    energy          sensibleEnthalpy;
    equationOfState perfectGas;
    specie          specie;
}

Selecting chemistryReader foamChemistryReader
    elements not defined in "/calcuDrive/Jingyuan/OpenFOAM/jingyuaz-7/solver/porousBedFoam/devTest/case/constant/foam.inp"
Creating component thermo properties:
    multi-component carrier - 10 species
    liquids - 1 components
    solids - 4 components

Reading field Uc

No MRF models present


Constructing fuel bed
Construct coarse grid
    Selecting particle force sphereDrag
Selecting Momentum integration scheme Euler
Bed model: bioBed Constructed
Selecting heat transfer model RanzMarshall
Selecting T integration scheme analytical
bioBedFields constructor called here

Selecting heat transfer model RanzMarshall
Selecting phase change model liquidEvaporation
Participating liquid species:
    H2O
Selecting devolatilisation model DiBlasiDevolatilisation
Volatile info:
 Kinetic data:
  wood -> gas A:1.1e+11 E:177000000
  wood -> tar A:9280000000 E:149000000
  wood -> char A:30500000 E:125000000
  tar -> gas A:4280000 E:107500000
  tar -> char A:100000 E:107500000
Selecting surface reaction model COxidationKineticDiffusionLimitedRate
BioBed Constructor called

Creating field dpdt

Creating field kinetic energy Kc

Creating turbulence model

Selecting turbulence model type laminar
Selecting laminar stress model Stokes
Creating combustion model

Selecting combustion model PaSR
Selecting chemistry solver 
{
    solver          ode;
    method          standard;
}

StandardChemistryModel: Number of species = 10 and reactions = 3
Selecting ODE solver seulex
    using integrated reaction rate
Selecting radiationModel P1
Selecting absorptionEmissionModel binary
Selecting absorptionEmissionModel constant
Selecting absorptionEmissionModel bed
Selecting scatterModel bed
No finite volume options present
Courant Number mean: 0.001201502185 max: 0.001432009566

ExecutionTime = 0.01 s  ClockTime = 0 s


Starting time loop

Courant Number mean: 0.001201502185 max: 0.001432009566
deltaT = 0.0001438848921
Time = 0.000263789

Solve the bed modelExecutionTime = 0.01 s  ClockTime = 0 s

Finish Solving the bed modelExecutionTime = 0.01 s  ClockTime = 0 s

DILUPBiCGStab:  Solving for Ux, Initial residual = 0.5661270736, Final residual = 1.469068216e-08, No Iterations 1
DILUPBiCGStab:  Solving for Uy, Initial residual = 0.3569981927, Final residual = 3.190796434e-09, No Iterations 1
DILUPBiCGStab:  Solving for Uz, Initial residual = 0.9978538734, Final residual = 2.061193309e-08, No Iterations 1
DILUPBiCGStab:  Solving for O2, Initial residual = 1, Final residual = 2.016006477e-09, No Iterations 1
DILUPBiCGStab:  Solving for CH4, Initial residual = 0.8256910911, Final residual = 1.550403022e-09, No Iterations 1
DILUPBiCGStab:  Solving for H2, Initial residual = 0.3854263788, Final residual = 7.237164196e-10, No Iterations 1
DILUPBiCGStab:  Solving for CO2, Initial residual = 1, Final residual = 1.877638156e-09, No Iterations 1
DILUPBiCGStab:  Solving for H2O, Initial residual = 1, Final residual = 1.9682683e-09, No Iterations 1
DILUPBiCGStab:  Solving for CO, Initial residual = 0.944278025, Final residual = 1.773074112e-09, No Iterations 1
DILUPBiCGStab:  Solving for tar, Initial residual = 0.999995817, Final residual = 1.87769549e-09, No Iterations 1
DILUPBiCGStab:  Solving for C2H4, Initial residual = 0, Final residual = 0, No Iterations 0
DILUPBiCGStab:  Solving for C2H6, Initial residual = 0, Final residual = 0, No Iterations 0
DILUPBiCGStab:  Solving for h, Initial residual = 1, Final residual = 2.80400836e-09, No Iterations 1
DICPCG:  Solving for G, Initial residual = 1, Final residual = 1.51555094e-08, No Iterations 4
T gas min/max   = 1181.066005, 1200
DICPCG:  Solving for p, Initial residual = 0.9717604916, Final residual = 0.001864304999, No Iterations 2
diagonal:  Solving for rho, Initial residual = 0, Final residual = 0, No Iterations 0
time step continuity errors : sum local = 0.0001344144305, global = 0.0001344144305, cumulative = 0.0001344144305
DICPCG:  Solving for p, Initial residual = 0.001218702132, Final residual = 1.240808382e-07, No Iterations 3
diagonal:  Solving for rho, Initial residual = 0, Final residual = 0, No Iterations 0
time step continuity errors : sum local = 0.0001344144305, global = 0.0001344144305, cumulative = 0.000268828861
For one fluid timestep, ExecutionTime = 0.01 s  ClockTime = 0 s

End

